# Packages
#
 &PACKAGES
 useKPP=.TRUE.,
 useOBCS=.TRUE.,
 useRBCS=.TRUE.,
 useEXF=.TRUE.,
 useCAL=.TRUE.,
 useDiagnostics=.TRUE.,
 useGMRedi=.FALSE.,
 useMNC=.FALSE.,
 usePTRACERS=.TRUE.,
 useGCHEM=.TRUE.,
 useFLT=.FALSE.,
 &END
