# *****************************************
# Open-boundaries
# *****************************************
 &OBCS_PARM01
 OBNuFile='../input/binaries/OBCs/PHYS/OBC_N_U.dat',
 OBNvFile='../input/binaries/OBCs/PHYS/OBC_N_V.dat',
 OBNtFile='../input/binaries/OBCs/PHYS/OBC_N_T.dat',
 OBNsFile='../input/binaries/OBCs/PHYS/OBC_N_S.dat',
#
 OBSuFile='../input/binaries/OBCs/PHYS/OBC_S_U.dat',
 OBSvFile='../input/binaries/OBCs/PHYS/OBC_S_V.dat',
 OBStFile='../input/binaries/OBCs/PHYS/OBC_S_T.dat',
 OBSsFile='../input/binaries/OBCs/PHYS/OBC_S_S.dat',
#
 OBEuFile='../input/binaries/OBCs/PHYS/OBC_E_U.dat',
 OBEvFile='../input/binaries/OBCs/PHYS/OBC_E_V.dat',
 OBEtFile='../input/binaries/OBCs/PHYS/OBC_E_T.dat',
 OBEsFile='../input/binaries/OBCs/PHYS/OBC_E_S.dat',
#
 OBWuFile='../input/binaries/OBCs/PHYS/OBC_W_U.dat',
 OBWvFile='../input/binaries/OBCs/PHYS/OBC_W_V.dat',
 OBWtFile='../input/binaries/OBCs/PHYS/OBC_W_T.dat',
 OBWsFile='../input/binaries/OBCs/PHYS/OBC_W_S.dat',
#
OBNptrFile(1)='../input/binaries/OBCs/BIO/OBC_N_O2o.dat',
OBNptrFile(2)='../input/binaries/OBCs/BIO/OBC_N_N1p.dat',
OBNptrFile(3)='../input/binaries/OBCs/BIO/OBC_N_N3n.dat',
OBNptrFile(4)='../input/binaries/OBCs/BIO/OBC_N_N4n.dat',
OBNptrFile(5)='../input/binaries/OBCs/BIO/OBC_N_O4n.dat',
OBNptrFile(6)='../input/binaries/OBCs/BIO/OBC_N_N5s.dat',
OBNptrFile(7)='../input/binaries/OBCs/BIO/OBC_N_N6r.dat',
OBNptrFile(8)='../input/binaries/OBCs/BIO/OBC_N_B1c.dat',
OBNptrFile(9)='../input/binaries/OBCs/BIO/OBC_N_B1n.dat',
OBNptrFile(10)='../input/binaries/OBCs/BIO/OBC_N_B1p.dat',
OBNptrFile(11)='../input/binaries/OBCs/BIO/OBC_N_P1c.dat',
OBNptrFile(12)='../input/binaries/OBCs/BIO/OBC_N_P1n.dat',
OBNptrFile(13)='../input/binaries/OBCs/BIO/OBC_N_P1p.dat',
OBNptrFile(14)='../input/binaries/OBCs/BIO/OBC_N_P1l.dat',
OBNptrFile(15)='../input/binaries/OBCs/BIO/OBC_N_P1s.dat',
OBNptrFile(16)='../input/binaries/OBCs/BIO/OBC_N_P2c.dat',
OBNptrFile(17)='../input/binaries/OBCs/BIO/OBC_N_P2n.dat',
OBNptrFile(18)='../input/binaries/OBCs/BIO/OBC_N_P2p.dat',
OBNptrFile(19)='../input/binaries/OBCs/BIO/OBC_N_P2l.dat',
OBNptrFile(20)='../input/binaries/OBCs/BIO/OBC_N_P3c.dat',
OBNptrFile(21)='../input/binaries/OBCs/BIO/OBC_N_P3n.dat',
OBNptrFile(22)='../input/binaries/OBCs/BIO/OBC_N_P3p.dat',
OBNptrFile(23)='../input/binaries/OBCs/BIO/OBC_N_P3l.dat',
OBNptrFile(24)='../input/binaries/OBCs/BIO/OBC_N_P4c.dat',
OBNptrFile(25)='../input/binaries/OBCs/BIO/OBC_N_P4n.dat',
OBNptrFile(26)='../input/binaries/OBCs/BIO/OBC_N_P4p.dat',
OBNptrFile(27)='../input/binaries/OBCs/BIO/OBC_N_P4l.dat',
OBNptrFile(28)='../input/binaries/OBCs/BIO/OBC_N_Z3c.dat',
OBNptrFile(29)='../input/binaries/OBCs/BIO/OBC_N_Z3n.dat',
OBNptrFile(30)='../input/binaries/OBCs/BIO/OBC_N_Z3p.dat',
OBNptrFile(31)='../input/binaries/OBCs/BIO/OBC_N_Z4c.dat',
OBNptrFile(32)='../input/binaries/OBCs/BIO/OBC_N_Z4n.dat',
OBNptrFile(33)='../input/binaries/OBCs/BIO/OBC_N_Z4p.dat',
OBNptrFile(34)='../input/binaries/OBCs/BIO/OBC_N_Z5c.dat',
OBNptrFile(35)='../input/binaries/OBCs/BIO/OBC_N_Z5n.dat',
OBNptrFile(36)='../input/binaries/OBCs/BIO/OBC_N_Z5p.dat',
OBNptrFile(37)='../input/binaries/OBCs/BIO/OBC_N_Z6c.dat',
OBNptrFile(38)='../input/binaries/OBCs/BIO/OBC_N_Z6n.dat',
OBNptrFile(39)='../input/binaries/OBCs/BIO/OBC_N_Z6p.dat',
OBNptrFile(40)='../input/binaries/OBCs/BIO/OBC_N_R1c.dat',
OBNptrFile(41)='../input/binaries/OBCs/BIO/OBC_N_R1n.dat',
OBNptrFile(42)='../input/binaries/OBCs/BIO/OBC_N_R1p.dat',
OBNptrFile(43)='../input/binaries/OBCs/BIO/OBC_N_R2c.dat',
OBNptrFile(44)='../input/binaries/OBCs/BIO/OBC_N_R3c.dat',
OBNptrFile(45)='../input/binaries/OBCs/BIO/OBC_N_R6c.dat',
OBNptrFile(46)='../input/binaries/OBCs/BIO/OBC_N_R6n.dat',
OBNptrFile(47)='../input/binaries/OBCs/BIO/OBC_N_R6p.dat',
OBNptrFile(48)='../input/binaries/OBCs/BIO/OBC_N_R6s.dat',
OBNptrFile(49)='../input/binaries/OBCs/BIO/OBC_N_O3c.dat',
OBNptrFile(50)='../input/binaries/OBCs/BIO/OBC_N_O3h.dat',
OBNptrFile(51)='../input/binaries/OBCs/BIO/OBC_N_O5c.dat',
#
OBSptrFile(1)='../input/binaries/OBCs/BIO/OBC_S_O2o.dat',
OBSptrFile(2)='../input/binaries/OBCs/BIO/OBC_S_N1p.dat',
OBSptrFile(3)='../input/binaries/OBCs/BIO/OBC_S_N3n.dat',
OBSptrFile(4)='../input/binaries/OBCs/BIO/OBC_S_N4n.dat',
OBSptrFile(5)='../input/binaries/OBCs/BIO/OBC_S_O4n.dat',
OBSptrFile(6)='../input/binaries/OBCs/BIO/OBC_S_N5s.dat',
OBSptrFile(7)='../input/binaries/OBCs/BIO/OBC_S_N6r.dat',
OBSptrFile(8)='../input/binaries/OBCs/BIO/OBC_S_B1c.dat',
OBSptrFile(9)='../input/binaries/OBCs/BIO/OBC_S_B1n.dat',
OBSptrFile(10)='../input/binaries/OBCs/BIO/OBC_S_B1p.dat',
OBSptrFile(11)='../input/binaries/OBCs/BIO/OBC_S_P1c.dat',
OBSptrFile(12)='../input/binaries/OBCs/BIO/OBC_S_P1n.dat',
OBSptrFile(13)='../input/binaries/OBCs/BIO/OBC_S_P1p.dat',
OBSptrFile(14)='../input/binaries/OBCs/BIO/OBC_S_P1l.dat',
OBSptrFile(15)='../input/binaries/OBCs/BIO/OBC_S_P1s.dat',
OBSptrFile(16)='../input/binaries/OBCs/BIO/OBC_S_P2c.dat',
OBSptrFile(17)='../input/binaries/OBCs/BIO/OBC_S_P2n.dat',
OBSptrFile(18)='../input/binaries/OBCs/BIO/OBC_S_P2p.dat',
OBSptrFile(19)='../input/binaries/OBCs/BIO/OBC_S_P2l.dat',
OBSptrFile(20)='../input/binaries/OBCs/BIO/OBC_S_P3c.dat',
OBSptrFile(21)='../input/binaries/OBCs/BIO/OBC_S_P3n.dat',
OBSptrFile(22)='../input/binaries/OBCs/BIO/OBC_S_P3p.dat',
OBSptrFile(23)='../input/binaries/OBCs/BIO/OBC_S_P3l.dat',
OBSptrFile(24)='../input/binaries/OBCs/BIO/OBC_S_P4c.dat',
OBSptrFile(25)='../input/binaries/OBCs/BIO/OBC_S_P4n.dat',
OBSptrFile(26)='../input/binaries/OBCs/BIO/OBC_S_P4p.dat',
OBSptrFile(27)='../input/binaries/OBCs/BIO/OBC_S_P4l.dat',
OBSptrFile(28)='../input/binaries/OBCs/BIO/OBC_S_Z3c.dat',
OBSptrFile(29)='../input/binaries/OBCs/BIO/OBC_S_Z3n.dat',
OBSptrFile(30)='../input/binaries/OBCs/BIO/OBC_S_Z3p.dat',
OBSptrFile(31)='../input/binaries/OBCs/BIO/OBC_S_Z4c.dat',
OBSptrFile(32)='../input/binaries/OBCs/BIO/OBC_S_Z4n.dat',
OBSptrFile(33)='../input/binaries/OBCs/BIO/OBC_S_Z4p.dat',
OBSptrFile(34)='../input/binaries/OBCs/BIO/OBC_S_Z5c.dat',
OBSptrFile(35)='../input/binaries/OBCs/BIO/OBC_S_Z5n.dat',
OBSptrFile(36)='../input/binaries/OBCs/BIO/OBC_S_Z5p.dat',
OBSptrFile(37)='../input/binaries/OBCs/BIO/OBC_S_Z6c.dat',
OBSptrFile(38)='../input/binaries/OBCs/BIO/OBC_S_Z6n.dat',
OBSptrFile(39)='../input/binaries/OBCs/BIO/OBC_S_Z6p.dat',
OBSptrFile(40)='../input/binaries/OBCs/BIO/OBC_S_R1c.dat',
OBSptrFile(41)='../input/binaries/OBCs/BIO/OBC_S_R1n.dat',
OBSptrFile(42)='../input/binaries/OBCs/BIO/OBC_S_R1p.dat',
OBSptrFile(43)='../input/binaries/OBCs/BIO/OBC_S_R2c.dat',
OBSptrFile(44)='../input/binaries/OBCs/BIO/OBC_S_R3c.dat',
OBSptrFile(45)='../input/binaries/OBCs/BIO/OBC_S_R6c.dat',
OBSptrFile(46)='../input/binaries/OBCs/BIO/OBC_S_R6n.dat',
OBSptrFile(47)='../input/binaries/OBCs/BIO/OBC_S_R6p.dat',
OBSptrFile(48)='../input/binaries/OBCs/BIO/OBC_S_R6s.dat',
OBSptrFile(49)='../input/binaries/OBCs/BIO/OBC_S_O3c.dat',
OBSptrFile(50)='../input/binaries/OBCs/BIO/OBC_S_O3h.dat',
OBSptrFile(51)='../input/binaries/OBCs/BIO/OBC_S_O5c.dat',
#
OBWptrFile(1)='../input/binaries/OBCs/BIO/OBC_W_O2o.dat',
OBWptrFile(2)='../input/binaries/OBCs/BIO/OBC_W_N1p.dat',
OBWptrFile(3)='../input/binaries/OBCs/BIO/OBC_W_N3n.dat',
OBWptrFile(4)='../input/binaries/OBCs/BIO/OBC_W_N4n.dat',
OBWptrFile(5)='../input/binaries/OBCs/BIO/OBC_W_O4n.dat',
OBWptrFile(6)='../input/binaries/OBCs/BIO/OBC_W_N5s.dat',
OBWptrFile(7)='../input/binaries/OBCs/BIO/OBC_W_N6r.dat',
OBWptrFile(8)='../input/binaries/OBCs/BIO/OBC_W_B1c.dat',
OBWptrFile(9)='../input/binaries/OBCs/BIO/OBC_W_B1n.dat',
OBWptrFile(10)='../input/binaries/OBCs/BIO/OBC_W_B1p.dat',
OBWptrFile(11)='../input/binaries/OBCs/BIO/OBC_W_P1c.dat',
OBWptrFile(12)='../input/binaries/OBCs/BIO/OBC_W_P1n.dat',
OBWptrFile(13)='../input/binaries/OBCs/BIO/OBC_W_P1p.dat',
OBWptrFile(14)='../input/binaries/OBCs/BIO/OBC_W_P1l.dat',
OBWptrFile(15)='../input/binaries/OBCs/BIO/OBC_W_P1s.dat',
OBWptrFile(16)='../input/binaries/OBCs/BIO/OBC_W_P2c.dat',
OBWptrFile(17)='../input/binaries/OBCs/BIO/OBC_W_P2n.dat',
OBWptrFile(18)='../input/binaries/OBCs/BIO/OBC_W_P2p.dat',
OBWptrFile(19)='../input/binaries/OBCs/BIO/OBC_W_P2l.dat',
OBWptrFile(20)='../input/binaries/OBCs/BIO/OBC_W_P3c.dat',
OBWptrFile(21)='../input/binaries/OBCs/BIO/OBC_W_P3n.dat',
OBWptrFile(22)='../input/binaries/OBCs/BIO/OBC_W_P3p.dat',
OBWptrFile(23)='../input/binaries/OBCs/BIO/OBC_W_P3l.dat',
OBWptrFile(24)='../input/binaries/OBCs/BIO/OBC_W_P4c.dat',
OBWptrFile(25)='../input/binaries/OBCs/BIO/OBC_W_P4n.dat',
OBWptrFile(26)='../input/binaries/OBCs/BIO/OBC_W_P4p.dat',
OBWptrFile(27)='../input/binaries/OBCs/BIO/OBC_W_P4l.dat',
OBWptrFile(28)='../input/binaries/OBCs/BIO/OBC_W_Z3c.dat',
OBWptrFile(29)='../input/binaries/OBCs/BIO/OBC_W_Z3n.dat',
OBWptrFile(30)='../input/binaries/OBCs/BIO/OBC_W_Z3p.dat',
OBWptrFile(31)='../input/binaries/OBCs/BIO/OBC_W_Z4c.dat',
OBWptrFile(32)='../input/binaries/OBCs/BIO/OBC_W_Z4n.dat',
OBWptrFile(33)='../input/binaries/OBCs/BIO/OBC_W_Z4p.dat',
OBWptrFile(34)='../input/binaries/OBCs/BIO/OBC_W_Z5c.dat',
OBWptrFile(35)='../input/binaries/OBCs/BIO/OBC_W_Z5n.dat',
OBWptrFile(36)='../input/binaries/OBCs/BIO/OBC_W_Z5p.dat',
OBWptrFile(37)='../input/binaries/OBCs/BIO/OBC_W_Z6c.dat',
OBWptrFile(38)='../input/binaries/OBCs/BIO/OBC_W_Z6n.dat',
OBWptrFile(39)='../input/binaries/OBCs/BIO/OBC_W_Z6p.dat',
OBWptrFile(40)='../input/binaries/OBCs/BIO/OBC_W_R1c.dat',
OBWptrFile(41)='../input/binaries/OBCs/BIO/OBC_W_R1n.dat',
OBWptrFile(42)='../input/binaries/OBCs/BIO/OBC_W_R1p.dat',
OBWptrFile(43)='../input/binaries/OBCs/BIO/OBC_W_R2c.dat',
OBWptrFile(44)='../input/binaries/OBCs/BIO/OBC_W_R3c.dat',
OBWptrFile(45)='../input/binaries/OBCs/BIO/OBC_W_R6c.dat',
OBWptrFile(46)='../input/binaries/OBCs/BIO/OBC_W_R6n.dat',
OBWptrFile(47)='../input/binaries/OBCs/BIO/OBC_W_R6p.dat',
OBWptrFile(48)='../input/binaries/OBCs/BIO/OBC_W_R6s.dat',
OBWptrFile(49)='../input/binaries/OBCs/BIO/OBC_W_O3c.dat',
OBWptrFile(50)='../input/binaries/OBCs/BIO/OBC_W_O3h.dat',
OBWptrFile(51)='../input/binaries/OBCs/BIO/OBC_W_O5c.dat',
#
OBEptrFile(1)='../input/binaries/OBCs/BIO/OBC_E_O2o.dat',
OBEptrFile(2)='../input/binaries/OBCs/BIO/OBC_E_N1p.dat',
OBEptrFile(3)='../input/binaries/OBCs/BIO/OBC_E_N3n.dat',
OBEptrFile(4)='../input/binaries/OBCs/BIO/OBC_E_N4n.dat',
OBEptrFile(5)='../input/binaries/OBCs/BIO/OBC_E_O4n.dat',
OBEptrFile(6)='../input/binaries/OBCs/BIO/OBC_E_N5s.dat',
OBEptrFile(7)='../input/binaries/OBCs/BIO/OBC_E_N6r.dat',
OBEptrFile(8)='../input/binaries/OBCs/BIO/OBC_E_B1c.dat',
OBEptrFile(9)='../input/binaries/OBCs/BIO/OBC_E_B1n.dat',
OBEptrFile(10)='../input/binaries/OBCs/BIO/OBC_E_B1p.dat',
OBEptrFile(11)='../input/binaries/OBCs/BIO/OBC_E_P1c.dat',
OBEptrFile(12)='../input/binaries/OBCs/BIO/OBC_E_P1n.dat',
OBEptrFile(13)='../input/binaries/OBCs/BIO/OBC_E_P1p.dat',
OBEptrFile(14)='../input/binaries/OBCs/BIO/OBC_E_P1l.dat',
OBEptrFile(15)='../input/binaries/OBCs/BIO/OBC_E_P1s.dat',
OBEptrFile(16)='../input/binaries/OBCs/BIO/OBC_E_P2c.dat',
OBEptrFile(17)='../input/binaries/OBCs/BIO/OBC_E_P2n.dat',
OBEptrFile(18)='../input/binaries/OBCs/BIO/OBC_E_P2p.dat',
OBEptrFile(19)='../input/binaries/OBCs/BIO/OBC_E_P2l.dat',
OBEptrFile(20)='../input/binaries/OBCs/BIO/OBC_E_P3c.dat',
OBEptrFile(21)='../input/binaries/OBCs/BIO/OBC_E_P3n.dat',
OBEptrFile(22)='../input/binaries/OBCs/BIO/OBC_E_P3p.dat',
OBEptrFile(23)='../input/binaries/OBCs/BIO/OBC_E_P3l.dat',
OBEptrFile(24)='../input/binaries/OBCs/BIO/OBC_E_P4c.dat',
OBEptrFile(25)='../input/binaries/OBCs/BIO/OBC_E_P4n.dat',
OBEptrFile(26)='../input/binaries/OBCs/BIO/OBC_E_P4p.dat',
OBEptrFile(27)='../input/binaries/OBCs/BIO/OBC_E_P4l.dat',
OBEptrFile(28)='../input/binaries/OBCs/BIO/OBC_E_Z3c.dat',
OBEptrFile(29)='../input/binaries/OBCs/BIO/OBC_E_Z3n.dat',
OBEptrFile(30)='../input/binaries/OBCs/BIO/OBC_E_Z3p.dat',
OBEptrFile(31)='../input/binaries/OBCs/BIO/OBC_E_Z4c.dat',
OBEptrFile(32)='../input/binaries/OBCs/BIO/OBC_E_Z4n.dat',
OBEptrFile(33)='../input/binaries/OBCs/BIO/OBC_E_Z4p.dat',
OBEptrFile(34)='../input/binaries/OBCs/BIO/OBC_E_Z5c.dat',
OBEptrFile(35)='../input/binaries/OBCs/BIO/OBC_E_Z5n.dat',
OBEptrFile(36)='../input/binaries/OBCs/BIO/OBC_E_Z5p.dat',
OBEptrFile(37)='../input/binaries/OBCs/BIO/OBC_E_Z6c.dat',
OBEptrFile(38)='../input/binaries/OBCs/BIO/OBC_E_Z6n.dat',
OBEptrFile(39)='../input/binaries/OBCs/BIO/OBC_E_Z6p.dat',
OBEptrFile(40)='../input/binaries/OBCs/BIO/OBC_E_R1c.dat',
OBEptrFile(41)='../input/binaries/OBCs/BIO/OBC_E_R1n.dat',
OBEptrFile(42)='../input/binaries/OBCs/BIO/OBC_E_R1p.dat',
OBEptrFile(43)='../input/binaries/OBCs/BIO/OBC_E_R2c.dat',
OBEptrFile(44)='../input/binaries/OBCs/BIO/OBC_E_R3c.dat',
OBEptrFile(45)='../input/binaries/OBCs/BIO/OBC_E_R6c.dat',
OBEptrFile(46)='../input/binaries/OBCs/BIO/OBC_E_R6n.dat',
OBEptrFile(47)='../input/binaries/OBCs/BIO/OBC_E_R6p.dat',
OBEptrFile(48)='../input/binaries/OBCs/BIO/OBC_E_R6s.dat',
OBEptrFile(49)='../input/binaries/OBCs/BIO/OBC_E_O3c.dat',
OBEptrFile(50)='../input/binaries/OBCs/BIO/OBC_E_O3h.dat',
OBEptrFile(51)='../input/binaries/OBCs/BIO/OBC_E_O5c.dat',
#
 OB_Jnorth=45*0,1*263,18*0,1*269,17*0,1*277,29*0,1*283,52*0,1*294,70*0,1*197,49*0,1*243,177*0,1*38,29*0,
 OB_Jsouth=494*1,
 OB_Ieast=102*0,1*420,113*0,1*325,19*0,1*182,20*0,1*182,9*0,1*200,27*0,1*184,4*0,
 OB_Iwest=57*0,1*82,84*0,1*3,46*0,1*4,1*4,24*0,1*10,3*0,1*8,80*0,
#
 useOrlanskiNorth=.FALSE.,
 useOrlanskiSouth=.FALSE.,
 useOrlanskiEast=.FALSE.,
 useOrlanskiWest=.FALSE.,
#
 useOBCSprescribe=.TRUE.,
 useOBCSsponge=.TRUE.,
 OBCSsponge_N=.FALSE.
 OBCSsponge_S=.TRUE.
 OBCSsponge_E=.FALSE.
 OBCSsponge_W=.FALSE.
 useOBCSbalance=.TRUE.,
 OBCS_balanceFacN=0.,
 OBCS_balanceFacS=-1.,
 OBCS_balanceFacE=0.,
 OBCS_balanceFacW=0.,
# OBCSbalanceSurf=.FALSE.,
 OBCSprintDiags=.FALSE.,
#
 useOBCStides=.TRUE.,
# components   = M2       S2     N2       K2       K1      O1       P1       Q1
# periods (hr) = 12.4206  12     12.6583  11.9672  23.9345 25.8193  24.0659  26.8684
 tidalPeriod  = 44714.16,43200.,45569.88,43081.92,86164.2,92949.48,86637.24,96726.24,
 OBSamFile='../input/binaries/OBSam_med_CADEAU.tide_obcs',
 OBEamFile='../input/binaries/OBEam_med_CADEAU.tide_obcs',
 OBNamFile='../input/binaries/OBNam_med_CADEAU.tide_obcs',
 OBWamFile='../input/binaries/OBWam_med_CADEAU.tide_obcs',
 OBSphFile='../input/binaries/OBSph_med_CADEAU.tide_obcs',
 OBEphFile='../input/binaries/OBEph_med_CADEAU.tide_obcs',
 OBNphFile='../input/binaries/OBNph_med_CADEAU.tide_obcs',
 OBWphFile='../input/binaries/OBWph_med_CADEAU.tide_obcs',
#
 &END
#
# *****************************************
# Orlanski Boundary Condition Parameters.
# *****************************************
# &OBCS_PARM02
# cVelTimeScale=2000.,
# Cmax=0.45,
# &END
#
# *****************************************
# Sponge Layer Parameters.
# *****************************************
 &OBCS_PARM03
 Urelaxobcsinner  = 172800.0,
 Urelaxobcsbound  = 43200.0,
 Vrelaxobcsinner  = 172800.0,
 Vrelaxobcsbound  = 43200.0,
 spongeThickness  = 15,
 &END
