 &GCHEM_PARM01
  useDIC=.FALSE.,
  useDARWIN=.FALSE.,
  useBFMcoupler=.TRUE.,
  nsubtime=1,
 &END
