# KPP parameters
 &KPP_PARM01
 KPPmixingMaps   = .FALSE.,
 KPPwriteState   = .FALSE.,
 kpp_freq        = 200.,
 kpp_dumpFreq    = 0.,
 kpp_taveFreq    = 0.,
 &END
