# ***************
# RBCS Parameters
# ***************
&RBCS_PARM01
useRBCptracers=.FALSE.,
useRBCsalt=.TRUE.,
useRBCtemp=.FALSE.,
rbcsIniter=0,
rbcsForcingOffset=0.0,
rbcsForcingPeriod=0.0,
rbcsForcingCycle=0.0,
# tauRelaxT=86400.,
# tauRelaxS=200.,
# tauRelaxS=86400.,
# tauRelaxS=3600.,
tauRelaxS=10800.,
relaxTFile='',
relaxSFile='../input/binaries/RBCs/S_rbcs_V3.dat',
relaxMaskFile(1) ='',
relaxMaskFile(2) ='../input/binaries/S_source_mask_V3.dat',
# relaxMaskFile(54) ='../input/binaries/CG_source_mask_01_A.dat',
# relaxMaskFile(55) ='../input/binaries/CG_source_mask_02_A.dat',
# relaxMaskFile(56) ='../input/binaries/CG_source_mask_03_A.dat',
# relaxMaskFile(57) ='../input/binaries/CG_source_mask_04_A.dat',
# relaxMaskFile(58) ='../input/binaries/CG_source_mask_05_A.dat',
# relaxMaskFile(59) ='../input/binaries/CG_source_mask_06_A.dat',
# relaxMaskFile(60) ='../input/binaries/CG_source_mask_07_A.dat',
# relaxMaskFile(61) ='../input/binaries/CG_source_mask_08_A.dat',
# relaxMaskFile(62) ='../input/binaries/CG_source_mask_09_A.dat',
# relaxMaskFile(63) ='../input/binaries/CG_source_mask_10_A.dat',
# relaxMaskFile(64) ='../input/binaries/CG_source_mask_11_A.dat',
# relaxMaskFile(65) ='../input/binaries/CG_source_mask_12_A.dat',
&END

&RBCS_PARM02
# useRBCptrnum(52)=.TRUE.,
# tauRelaxPTR(52)=1200.,
# relaxPtracerFile(52)='../input/binaries/RBCs/ptracers_CG/CG_rbcs_01_B.dat',
# useRBCptrnum(53)=.TRUE.,
# tauRelaxPTR(53)=1200.,
# relaxPtracerFile(53)='../input/binaries/RBCs/ptracers_CG/CG_rbcs_02_B.dat',
# useRBCptrnum(54)=.TRUE.,
# tauRelaxPTR(54)=1200.,
# relaxPtracerFile(54)='../input/binaries/RBCs/ptracers_CG/CG_rbcs_03_B.dat',
# useRBCptrnum(55)=.TRUE.,
# tauRelaxPTR(55)=1200.,
# relaxPtracerFile(55)='../input/binaries/RBCs/ptracers_CG/CG_rbcs_04_B.dat',
# useRBCptrnum(56)=.TRUE.,
# tauRelaxPTR(56)=1200.,
# relaxPtracerFile(56)='../input/binaries/RBCs/ptracers_CG/CG_rbcs_05_B.dat',
# useRBCptrnum(57)=.TRUE.,
# tauRelaxPTR(57)=1200.,
# relaxPtracerFile(57)='../input/binaries/RBCs/ptracers_CG/CG_rbcs_06_B.dat',
# useRBCptrnum(58)=.TRUE.,
# tauRelaxPTR(58)=1200.,
# relaxPtracerFile(58)='../input/binaries/RBCs/ptracers_CG/CG_rbcs_07_B.dat',
# useRBCptrnum(59)=.TRUE.,
# tauRelaxPTR(59)=1200.,
# relaxPtracerFile(59)='../input/binaries/RBCs/ptracers_CG/CG_rbcs_08_B.dat',
# useRBCptrnum(60)=.TRUE.,
# tauRelaxPTR(60)=1200.,
# relaxPtracerFile(60)='../input/binaries/RBCs/ptracers_CG/CG_rbcs_09_B.dat',
# useRBCptrnum(61)=.TRUE.,
# tauRelaxPTR(61)=1200.,
# relaxPtracerFile(61)='../input/binaries/RBCs/ptracers_CG/CG_rbcs_10_B.dat',
# useRBCptrnum(62)=.TRUE.,
# tauRelaxPTR(62)=1200.,
# relaxPtracerFile(62)='../input/binaries/RBCs/ptracers_CG/CG_rbcs_11_B.dat',
# useRBCptrnum(63)=.TRUE.,
# tauRelaxPTR(63)=1200.,
# relaxPtracerFile(63)='../input/binaries/RBCs/ptracers_CG/CG_rbcs_12_B.dat',
&END
